# Example "data.mnc" file
# Lines beginning "#" are comments
 &MNC_01
 mnc_use_outdir=.FALSE.,
 monitor_mnc=.FALSE.,
#snapshot_mnc=.FALSE.,
 pickup_write_mnc=.FALSE.,
 pickup_read_mnc=.FALSE.,
 &
